<?xml version="1.0" encoding="UTF-8"?>

<!-- generated on 2023-04-04 18:54:49 by Eclipse SUMO netedit Version v1_14_1+2165-594eea235e4
<configuration xmlns:xsi="http://www.w3.org/2001/XMLSchema-instance" xsi:noNamespaceSchemaLocation="http://sumo.dlr.de/xsd/netconvertConfiguration.xsd">

    <input>
        <sumo-net-file value="/Users/bartadaniel/Documents/BME6/Onlab/reggel/uthalozat.net.xml"/>
    </input>

    <output>
        <output-file value="/Users/bartadaniel/Documents/BME6/Onlab/reggel/uthalozat.net.xml"/>
    </output>

    <processing>
        <geometry.min-radius.fix.railways value="false"/>
        <geometry.max-grade.fix value="false"/>
        <offset.disable-normalization value="true"/>
        <lefthand value="0"/>
    </processing>

    <junctions>
        <no-turnarounds value="true"/>
        <junctions.corner-detail value="5"/>
        <junctions.limit-turn-speed value="5.50"/>
        <rectangular-lane-cut value="0"/>
    </junctions>

    <pedestrian>
        <walkingareas value="0"/>
    </pedestrian>

</configuration>
-->

<net version="1.9" junctionCornerDetail="5" limitTurnSpeed="5.50" xmlns:xsi="http://www.w3.org/2001/XMLSchema-instance" xsi:noNamespaceSchemaLocation="http://sumo.dlr.de/xsd/net_file.xsd">

    <location netOffset="0.00,0.00" convBoundary="-1366.47,-2700.80,5992.13,469.53" origBoundary="-10000000000.00,-10000000000.00,10000000000.00,10000000000.00" projParameter="!"/>

    <edge id=":J0_0" function="internal">
        <lane id=":J0_0_0" index="0" speed="15.28" length="0.29" shape="-750.03,64.37 -750.32,64.39"/>
    </edge>
    <edge id=":J0_1" function="internal">
        <lane id=":J0_1_0" index="0" speed="15.28" length="0.31" shape="-750.50,61.19 -750.19,61.17"/>
    </edge>
    <edge id=":J11_0" function="internal">
        <lane id=":J11_0_0" index="0" speed="16.67" length="0.76" shape="1757.79,329.38 1757.77,329.16 1757.75,329.01 1757.75,328.85 1757.76,328.63"/>
    </edge>
    <edge id=":J11_1" function="internal">
        <lane id=":J11_1_0" index="0" speed="16.67" length="0.25" shape="1760.96,328.75 1760.96,328.82 1760.96,328.87 1760.96,328.93 1760.97,329.00"/>
    </edge>
    <edge id=":J12_0" function="internal">
        <lane id=":J12_0_0" index="0" speed="6.11" length="6.87" shape="1766.60,368.58 1764.78,368.25 1763.41,367.44 1762.49,366.14 1762.02,364.36"/>
    </edge>
    <edge id=":J12_1" function="internal">
        <lane id=":J12_1_0" index="0" speed="3.92" length="2.29" shape="1765.20,363.97 1765.36,364.57 1765.66,365.00 1766.12,365.27 1766.73,365.38"/>
    </edge>
    <edge id=":J13_0" function="internal">
        <lane id=":J13_0_0" index="0" speed="16.67" length="0.31" shape="1908.27,374.31 1907.97,374.30"/>
    </edge>
    <edge id=":J13_1" function="internal">
        <lane id=":J13_1_0" index="0" speed="16.67" length="0.29" shape="1908.10,371.11 1908.38,371.12"/>
    </edge>
    <edge id=":J14_0" function="internal">
        <lane id=":J14_0_0" index="0" speed="16.67" length="7.94" shape="1772.56,-19.70 1772.24,-17.37 1772.05,-15.77 1771.94,-14.16 1771.86,-11.80"/>
    </edge>
    <edge id=":J14_1" function="internal">
        <lane id=":J14_1_0" index="0" speed="7.29" length="7.54" shape="1764.27,-15.15 1766.33,-16.04 1767.87,-17.17 1768.89,-18.54 1769.39,-20.14"/>
    </edge>
    <edge id=":J14_2" function="internal">
        <lane id=":J14_2_0" index="0" speed="6.21" length="10.31" shape="1764.27,-15.15 1767.65,-15.91 1770.04,-15.60 1771.45,-14.23 1771.86,-11.80"/>
    </edge>
    <edge id=":J14_3" function="internal">
        <lane id=":J14_3_0" index="0" speed="16.67" length="8.29" shape="1768.66,-11.89 1768.74,-14.35 1768.85,-16.03 1769.05,-17.70 1769.39,-20.14"/>
    </edge>
    <edge id=":J16_0" function="internal">
        <lane id=":J16_0_0" index="0" speed="16.67" length="0.28" shape="1825.34,-401.17 1825.30,-400.89"/>
    </edge>
    <edge id=":J16_1" function="internal">
        <lane id=":J16_1_0" index="0" speed="16.67" length="0.31" shape="1822.13,-401.33 1822.18,-401.64"/>
    </edge>
    <edge id=":J18_0" function="internal">
        <lane id=":J18_0_0" index="0" speed="10.67" length="10.71" shape="1872.09,-693.61 1870.37,-692.00 1869.00,-689.92 1867.98,-687.36 1867.32,-684.32"/>
    </edge>
    <edge id=":J18_1" function="internal">
        <lane id=":J18_1_0" index="0" speed="12.56" length="13.32" shape="1872.09,-693.61 1869.09,-691.89 1866.07,-691.01 1862.88,-690.78 1859.37,-691.03"/>
    </edge>
    <edge id=":J18_2" function="internal">
        <lane id=":J18_2_0" index="0" speed="11.48" length="11.06" shape="1859.74,-694.21 1862.90,-693.87 1865.32,-693.90 1867.57,-694.58 1870.22,-696.20"/>
    </edge>
    <edge id=":J18_3" function="internal">
        <lane id=":J18_3_0" index="0" speed="7.95" length="3.69" shape="1859.74,-694.21 1863.31,-693.27"/>
    </edge>
    <edge id=":J18_6" function="internal">
        <lane id=":J18_6_0" index="0" speed="7.95" length="10.62" shape="1863.31,-693.27 1863.55,-693.21 1866.08,-691.22 1867.34,-688.26 1867.32,-684.32"/>
    </edge>
    <edge id=":J18_4" function="internal">
        <lane id=":J18_4_0" index="0" speed="6.44" length="9.03" shape="1864.16,-684.79 1864.17,-687.28 1863.37,-689.15 1861.78,-690.40 1859.37,-691.03"/>
    </edge>
    <edge id=":J18_5" function="internal">
        <lane id=":J18_5_0" index="0" speed="11.83" length="13.27" shape="1864.16,-684.79 1864.97,-688.46 1866.26,-691.59 1868.01,-694.17 1870.22,-696.20"/>
    </edge>
    <edge id=":J19_0" function="internal">
        <lane id=":J19_0_0" index="0" speed="16.67" length="0.71" shape="2005.14,-789.07 2004.93,-789.03 2004.79,-788.98 2004.66,-788.91 2004.49,-788.79"/>
    </edge>
    <edge id=":J19_1" function="internal">
        <lane id=":J19_1_0" index="0" speed="8.34" length="2.13" shape="2002.62,-791.39 2003.14,-791.75 2003.52,-791.96 2003.94,-792.09 2004.56,-792.21"/>
    </edge>
    <edge id=":J2_0" function="internal">
        <lane id=":J2_0_0" index="0" speed="16.67" length="14.61" shape="486.73,38.33 472.14,37.64"/>
    </edge>
    <edge id=":J2_1" function="internal">
        <lane id=":J2_1_0" index="0" speed="7.96" length="4.25" shape="486.73,38.33 482.86,37.67 482.59,37.49"/>
    </edge>
    <edge id=":J2_6" function="internal">
        <lane id=":J2_6_0" index="0" speed="7.96" length="10.03" shape="482.59,37.49 480.16,35.93 478.62,33.10 478.26,29.19"/>
    </edge>
    <edge id=":J2_2" function="internal">
        <lane id=":J2_2_0" index="0" speed="6.46" length="9.03" shape="481.45,29.35 481.69,31.82 482.66,33.61 484.37,34.71 486.81,35.13"/>
    </edge>
    <edge id=":J2_3" function="internal">
        <lane id=":J2_3_0" index="0" speed="7.97" length="14.28" shape="481.45,29.35 480.71,33.21 478.91,35.87 476.05,37.35 472.14,37.64"/>
    </edge>
    <edge id=":J2_4" function="internal">
        <lane id=":J2_4_0" index="0" speed="6.47" length="9.04" shape="472.36,34.44 474.84,34.26 476.65,33.33 477.79,31.64 478.26,29.19"/>
    </edge>
    <edge id=":J2_5" function="internal">
        <lane id=":J2_5_0" index="0" speed="16.67" length="14.47" shape="472.36,34.44 486.81,35.13"/>
    </edge>
    <edge id=":J20_0" function="internal">
        <lane id=":J20_0_0" index="0" speed="16.67" length="0.21" shape="2541.32,-887.42 2541.26,-887.42 2541.21,-887.42 2541.17,-887.41 2541.11,-887.40"/>
    </edge>
    <edge id=":J20_1" function="internal">
        <lane id=":J20_1_0" index="0" speed="16.67" length="0.64" shape="2540.53,-890.55 2540.72,-890.58 2540.85,-890.60 2540.98,-890.61 2541.17,-890.62"/>
    </edge>
    <edge id=":J21_0" function="internal">
        <lane id=":J21_0_0" index="0" speed="16.67" length="14.16" shape="2729.79,-896.10 2715.64,-895.79"/>
    </edge>
    <edge id=":J21_1" function="internal">
        <lane id=":J21_1_0" index="0" speed="7.99" length="3.90" shape="2729.79,-896.10 2725.94,-896.66"/>
    </edge>
    <edge id=":J21_6" function="internal">
        <lane id=":J21_6_0" index="0" speed="7.99" length="10.32" shape="2725.94,-896.66 2723.19,-898.33 2721.56,-901.09 2721.04,-904.95"/>
    </edge>
    <edge id=":J21_2" function="internal">
        <lane id=":J21_2_0" index="0" speed="6.50" length="9.03" shape="2724.24,-904.92 2724.57,-902.47 2725.61,-900.72 2727.35,-899.66 2729.80,-899.30"/>
    </edge>
    <edge id=":J21_3" function="internal">
        <lane id=":J21_3_0" index="0" speed="8.15" length="14.14" shape="2724.24,-904.92 2723.67,-901.08 2722.05,-898.27 2719.37,-896.51 2715.64,-895.79"/>
    </edge>
    <edge id=":J21_4" function="internal">
        <lane id=":J21_4_0" index="0" speed="6.69" length="9.18" shape="2715.48,-898.98 2717.90,-899.45 2719.63,-900.61 2720.67,-902.44 2721.04,-904.95"/>
    </edge>
    <edge id=":J21_5" function="internal">
        <lane id=":J21_5_0" index="0" speed="16.67" length="14.32" shape="2715.48,-898.98 2729.80,-899.30"/>
    </edge>
    <edge id=":J23_0" function="internal">
        <lane id=":J23_0_0" index="0" speed="15.28" length="0.23" shape="-963.87,-865.66 -964.09,-865.66"/>
    </edge>
    <edge id=":J23_1" function="internal">
        <lane id=":J23_1_0" index="0" speed="15.28" length="0.31" shape="-964.17,-868.86 -963.87,-868.86"/>
    </edge>
    <edge id=":J24_0" function="internal">
        <lane id=":J24_0_0" index="0" speed="8.99" length="12.15" shape="182.42,-857.96 180.55,-861.33 178.49,-863.74 176.26,-865.18 173.84,-865.66"/>
    </edge>
    <edge id=":J24_1" function="internal">
        <lane id=":J24_1_0" index="0" speed="7.41" length="16.76" shape="182.42,-857.96 180.93,-862.76 181.61,-866.05 184.46,-867.81 189.48,-868.06"/>
    </edge>
    <edge id=":J24_2" function="internal">
        <lane id=":J24_2_0" index="0" speed="5.67" length="9.23" shape="189.22,-864.87 186.45,-864.73 184.88,-863.76 184.51,-861.95 185.33,-859.31"/>
    </edge>
    <edge id=":J24_3" function="internal">
        <lane id=":J24_3_0" index="0" speed="16.67" length="15.40" shape="189.22,-864.87 173.84,-865.66"/>
    </edge>
    <edge id=":J24_4" function="internal">
        <lane id=":J24_4_0" index="0" speed="16.67" length="15.67" shape="173.84,-868.86 189.48,-868.06"/>
    </edge>
    <edge id=":J24_5" function="internal">
        <lane id=":J24_5_0" index="0" speed="10.18" length="3.90" shape="173.84,-868.86 177.20,-868.26 177.62,-868.02"/>
    </edge>
    <edge id=":J24_6" function="internal">
        <lane id=":J24_6_0" index="0" speed="10.18" length="11.88" shape="177.62,-868.02 180.24,-866.47 182.95,-863.49 185.33,-859.31"/>
    </edge>
    <edge id=":J25_0" function="internal">
        <lane id=":J25_0_0" index="0" speed="16.67" length="0.17" shape="936.52,-802.06 936.35,-802.08"/>
    </edge>
    <edge id=":J25_1" function="internal">
        <lane id=":J25_1_0" index="0" speed="16.67" length="0.29" shape="936.62,-805.26 936.91,-805.23"/>
    </edge>
    <edge id=":J26_0" function="internal">
        <lane id=":J26_0_0" index="0" speed="16.67" length="0.31" shape="1593.25,-721.98 1592.95,-722.02"/>
    </edge>
    <edge id=":J26_1" function="internal">
        <lane id=":J26_1_0" index="0" speed="16.67" length="0.29" shape="1593.34,-725.20 1593.62,-725.16"/>
    </edge>
    <edge id=":J28_0" function="internal">
        <lane id=":J28_0_0" index="0" speed="16.67" length="0.22" shape="-543.80,-997.77 -543.80,-997.55"/>
    </edge>
    <edge id=":J28_1" function="internal">
        <lane id=":J28_1_0" index="0" speed="16.67" length="0.31" shape="-547.00,-997.62 -546.99,-997.93"/>
    </edge>
    <edge id=":J29_0" function="internal">
        <lane id=":J29_0_0" index="0" speed="16.67" length="0.86" shape="-515.86,-1569.83 -515.83,-1569.58 -515.81,-1569.40 -515.81,-1569.23 -515.83,-1568.98"/>
    </edge>
    <edge id=":J29_1" function="internal">
        <lane id=":J29_1_0" index="0" speed="16.67" length="0.29" shape="-519.02,-1569.13 -519.02,-1569.22 -519.02,-1569.27 -519.02,-1569.33 -519.03,-1569.42"/>
    </edge>
    <edge id=":J3_0" function="internal">
        <lane id=":J3_0_0" index="0" speed="7.91" length="2.33" shape="491.99,-197.20 492.27,-196.57 492.41,-196.11 492.45,-195.63 492.43,-194.95"/>
    </edge>
    <edge id=":J3_1" function="internal">
        <lane id=":J3_1_0" index="0" speed="16.67" length="0.78" shape="489.23,-195.10 489.24,-195.33 489.23,-195.49 489.18,-195.64 489.09,-195.85"/>
    </edge>
    <edge id=":J31_0" function="internal">
        <lane id=":J31_0_0" index="0" speed="25.00" length="0.10" shape="-1347.14,-2493.20 -1347.20,-2493.20"/>
        <lane id=":J31_0_1" index="1" speed="25.00" length="0.10" shape="-1347.14,-2496.40 -1347.10,-2496.40"/>
        <lane id=":J31_0_2" index="2" speed="25.00" length="0.10" shape="-1347.02,-2499.60 -1347.01,-2499.60"/>
    </edge>
    <edge id=":J31_3" function="internal">
        <lane id=":J31_3_0" index="0" speed="25.00" length="0.10" shape="-1346.72,-2509.20 -1346.78,-2509.20"/>
        <lane id=":J31_3_1" index="1" speed="25.00" length="0.10" shape="-1346.82,-2506.00 -1346.85,-2506.00"/>
        <lane id=":J31_3_2" index="2" speed="25.00" length="0.10" shape="-1346.91,-2502.80 -1346.92,-2502.80"/>
    </edge>
    <edge id=":J32_0" function="internal">
        <lane id=":J32_0_0" index="0" speed="36.11" length="0.26" shape="2630.61,-2377.19 2630.37,-2377.20"/>
        <lane id=":J32_0_1" index="1" speed="36.11" length="0.26" shape="2630.72,-2380.39 2630.46,-2380.40"/>
        <lane id=":J32_0_2" index="2" speed="36.11" length="0.26" shape="2630.83,-2383.58 2630.55,-2383.59"/>
    </edge>
    <edge id=":J32_3" function="internal">
        <lane id=":J32_3_0" index="0" allow="bus" speed="36.11" length="0.33" shape="2630.81,-2393.19 2631.17,-2393.18"/>
        <lane id=":J32_3_1" index="1" speed="36.11" length="0.33" shape="2630.73,-2389.99 2631.06,-2389.98"/>
        <lane id=":J32_3_2" index="2" speed="36.11" length="0.33" shape="2630.64,-2386.79 2630.95,-2386.78"/>
    </edge>
    <edge id=":J33_0" function="internal">
        <lane id=":J33_0_0" index="0" speed="36.11" length="1.17" shape="4798.00,-2296.45 4797.89,-2296.47 4797.81,-2296.49 4797.73,-2296.50 4797.62,-2296.50"/>
        <lane id=":J33_0_1" index="1" speed="36.11" length="1.17" shape="4798.79,-2299.55 4798.45,-2299.63 4798.22,-2299.68 4797.98,-2299.69 4797.63,-2299.70"/>
        <lane id=":J33_0_2" index="2" speed="36.11" length="1.17" shape="4799.57,-2302.65 4799.01,-2302.79 4798.62,-2302.86 4798.23,-2302.89 4797.65,-2302.90"/>
    </edge>
    <edge id=":J33_3" function="internal">
        <lane id=":J33_3_0" index="0" speed="36.11" length="3.51" shape="4797.70,-2312.57 4798.97,-2312.50 4799.84,-2312.41 4800.70,-2312.26 4801.93,-2311.96"/>
        <lane id=":J33_3_1" index="1" speed="36.11" length="3.51" shape="4797.69,-2309.37 4798.72,-2309.30 4799.43,-2309.23 4800.13,-2309.10 4801.14,-2308.86"/>
        <lane id=":J33_3_2" index="2" speed="36.11" length="3.51" shape="4797.67,-2306.16 4798.48,-2306.11 4799.03,-2306.05 4799.57,-2305.95 4800.36,-2305.75"/>
    </edge>
    <edge id=":J35_0" function="internal">
        <lane id=":J35_0_0" index="0" speed="25.00" length="0.24" shape="5972.90,-1998.65 5972.82,-1998.67"/>
        <lane id=":J35_0_1" index="1" speed="25.00" length="0.24" shape="5973.84,-2001.71 5973.61,-2001.78"/>
        <lane id=":J35_0_2" index="2" speed="25.00" length="0.24" shape="5974.78,-2004.77 5974.39,-2004.88"/>
    </edge>
    <edge id=":J35_3" function="internal">
        <lane id=":J35_3_0" index="0" speed="25.00" length="0.73" shape="5976.75,-2014.18 5977.61,-2013.94"/>
        <lane id=":J35_3_1" index="1" speed="25.00" length="0.73" shape="5975.96,-2011.08 5976.66,-2010.89"/>
        <lane id=":J35_3_2" index="2" speed="25.00" length="0.73" shape="5975.18,-2007.98 5975.72,-2007.83"/>
    </edge>
    <edge id=":J36_0" function="internal">
        <lane id=":J36_0_0" index="0" speed="8.72" length="7.95" shape="-625.54,-2400.84 -625.83,-2402.38 -626.64,-2403.97 -627.97,-2405.60 -629.82,-2407.27"/>
    </edge>
    <edge id=":J36_1" function="internal">
        <lane id=":J36_1_0" index="0" speed="16.67" length="8.44" shape="-625.54,-2400.84 -625.55,-2409.28"/>
    </edge>
    <edge id=":J36_2" function="internal">
        <lane id=":J36_2_0" index="0" speed="7.98" length="7.59" shape="-618.15,-2406.93 -620.00,-2405.40 -621.32,-2403.89 -622.10,-2402.39 -622.34,-2400.92"/>
    </edge>
    <edge id=":J36_3" function="internal">
        <lane id=":J36_3_0" index="0" speed="8.45" length="12.67" shape="-618.15,-2406.93 -621.10,-2405.35 -624.03,-2404.88 -626.94,-2405.52 -629.82,-2407.27"/>
    </edge>
    <edge id=":J36_4" function="internal">
        <lane id=":J36_4_0" index="0" speed="6.00" length="11.20" shape="-618.15,-2406.93 -621.43,-2405.04 -623.76,-2404.80 -625.13,-2406.22 -625.55,-2409.28"/>
    </edge>
    <edge id=":J36_5" function="internal">
        <lane id=":J36_5_0" index="0" speed="16.67" length="8.32" shape="-622.35,-2409.24 -622.34,-2400.92"/>
    </edge>
    <edge id=":J36_6" function="internal">
        <lane id=":J36_6_0" index="0" speed="5.99" length="3.12" shape="-622.35,-2409.24 -622.86,-2406.16"/>
    </edge>
    <edge id=":J36_7" function="internal">
        <lane id=":J36_7_0" index="0" speed="5.99" length="8.15" shape="-622.86,-2406.16 -624.28,-2404.81 -626.60,-2405.18 -629.82,-2407.27"/>
    </edge>
    <edge id=":J37_0" function="internal">
        <lane id=":J37_0_0" index="0" speed="8.20" length="7.51" shape="-620.14,-2560.42 -619.92,-2559.00 -619.18,-2557.51 -617.92,-2555.96 -616.14,-2554.33"/>
    </edge>
    <edge id=":J37_1" function="internal">
        <lane id=":J37_1_0" index="0" speed="16.67" length="8.04" shape="-620.14,-2560.42 -620.31,-2552.38"/>
    </edge>
    <edge id=":J37_2" function="internal">
        <lane id=":J37_2_0" index="0" speed="8.35" length="7.55" shape="-627.63,-2554.58 -625.78,-2556.13 -624.45,-2557.64 -623.64,-2559.10 -623.34,-2560.52"/>
    </edge>
    <edge id=":J37_3" function="internal">
        <lane id=":J37_3_0" index="0" speed="8.31" length="12.51" shape="-627.63,-2554.58 -624.73,-2556.20 -621.85,-2556.70 -618.98,-2556.07 -616.14,-2554.33"/>
    </edge>
    <edge id=":J37_4" function="internal">
        <lane id=":J37_4_0" index="0" speed="5.96" length="11.11" shape="-627.63,-2554.58 -624.39,-2556.53 -622.09,-2556.81 -620.73,-2555.43 -620.31,-2552.38"/>
    </edge>
    <edge id=":J37_5" function="internal">
        <lane id=":J37_5_0" index="0" speed="16.67" length="8.10" shape="-623.51,-2552.43 -623.34,-2560.52"/>
    </edge>
    <edge id=":J37_6" function="internal">
        <lane id=":J37_6_0" index="0" speed="5.95" length="3.23" shape="-623.51,-2552.43 -623.01,-2555.47 -622.91,-2555.57"/>
    </edge>
    <edge id=":J37_7" function="internal">
        <lane id=":J37_7_0" index="0" speed="5.95" length="7.92" shape="-622.91,-2555.57 -621.62,-2556.81 -619.33,-2556.43 -616.14,-2554.33"/>
    </edge>
    <edge id=":J38_0" function="internal">
        <lane id=":J38_0_0" index="0" speed="16.67" length="12.46" shape="4331.79,-936.36 4328.55,-937.22 4325.72,-937.77 4322.86,-938.06 4319.51,-938.13"/>
    </edge>
    <edge id=":J38_1" function="internal">
        <lane id=":J38_1_0" index="0" speed="8.02" length="3.65" shape="4331.79,-936.36 4328.46,-937.85"/>
    </edge>
    <edge id=":J38_6" function="internal">
        <lane id=":J38_6_0" index="0" speed="8.02" length="9.80" shape="4328.46,-937.85 4326.32,-940.06 4325.37,-942.98 4325.61,-946.62"/>
    </edge>
    <edge id=":J38_2" function="internal">
        <lane id=":J38_2_0" index="0" speed="6.52" length="8.56" shape="4328.75,-945.97 4328.59,-943.65 4329.20,-941.79 4330.56,-940.39 4332.68,-939.44"/>
    </edge>
    <edge id=":J38_3" function="internal">
        <lane id=":J38_3_0" index="0" speed="8.41" length="13.26" shape="4328.75,-945.97 4327.56,-942.55 4325.62,-940.10 4322.94,-938.63 4319.51,-938.13"/>
    </edge>
    <edge id=":J38_4" function="internal">
        <lane id=":J38_4_0" index="0" speed="6.98" length="8.85" shape="4319.50,-941.33 4321.76,-941.67 4323.53,-942.66 4324.82,-944.31 4325.61,-946.62"/>
    </edge>
    <edge id=":J38_5" function="internal">
        <lane id=":J38_5_0" index="0" speed="16.67" length="13.37" shape="4319.50,-941.33 4322.99,-941.24 4326.16,-940.91 4329.30,-940.32 4332.68,-939.44"/>
    </edge>
    <edge id=":J39_0" function="internal">
        <lane id=":J39_0_0" index="0" speed="16.67" length="0.83" shape="4952.27,-757.85 4952.02,-757.88 4951.85,-757.90 4951.69,-757.94 4951.45,-758.01"/>
    </edge>
    <edge id=":J39_1" function="internal">
        <lane id=":J39_1_0" index="0" speed="16.67" length="0.28" shape="4952.33,-761.08 4952.41,-761.06 4952.47,-761.05 4952.53,-761.04 4952.61,-761.03"/>
    </edge>
    <edge id=":J4_0" function="internal">
        <lane id=":J4_0_0" index="0" speed="16.67" length="0.23" shape="797.21,46.26 796.97,46.26"/>
    </edge>
    <edge id=":J4_1" function="internal">
        <lane id=":J4_1_0" index="0" speed="16.67" length="0.31" shape="797.06,43.06 797.36,43.07"/>
    </edge>
    <edge id=":J40_0" function="internal">
        <lane id=":J40_0_0" index="0" speed="16.67" length="0.10" shape="4461.29,-1579.21 4461.28,-1579.11"/>
    </edge>
    <edge id=":J40_1" function="internal">
        <lane id=":J40_1_0" index="0" speed="16.67" length="0.10" shape="4458.14,-1579.77 4458.13,-1579.67"/>
    </edge>
    <edge id=":J41_0" function="internal">
        <lane id=":J41_0_0" index="0" speed="16.67" length="0.26" shape="4489.43,-1772.61 4489.39,-1772.36"/>
    </edge>
    <edge id=":J41_1" function="internal">
        <lane id=":J41_1_0" index="0" speed="16.67" length="0.31" shape="4486.23,-1772.82 4486.27,-1773.13"/>
    </edge>
    <edge id=":J42_0" function="internal">
        <lane id=":J42_0_0" index="0" speed="16.67" length="0.28" shape="4557.93,-2193.35 4557.89,-2193.07"/>
    </edge>
    <edge id=":J42_1" function="internal">
        <lane id=":J42_1_0" index="0" speed="16.67" length="0.15" shape="4554.73,-2193.58 4554.75,-2193.73"/>
    </edge>
    <edge id=":J45_0" function="internal">
        <lane id=":J45_0_0" index="0" speed="16.67" length="0.30" shape="2887.47,-895.75 2887.17,-895.75"/>
    </edge>
    <edge id=":J45_1" function="internal">
        <lane id=":J45_1_0" index="0" speed="16.67" length="0.21" shape="2887.18,-898.95 2887.38,-898.95"/>
    </edge>
    <edge id=":J46_0" function="internal">
        <lane id=":J46_0_0" index="0" speed="16.67" length="0.30" shape="3262.10,-905.95 3261.80,-905.95"/>
    </edge>
    <edge id=":J46_1" function="internal">
        <lane id=":J46_1_0" index="0" speed="16.67" length="0.30" shape="3261.72,-909.15 3262.02,-909.15"/>
    </edge>
    <edge id=":J47_0" function="internal">
        <lane id=":J47_0_0" index="0" speed="6.69" length="9.25" shape="3601.80,-908.91 3601.26,-911.43 3600.09,-913.21 3598.28,-914.25 3595.84,-914.55"/>
    </edge>
    <edge id=":J47_1" function="internal">
        <lane id=":J47_1_0" index="0" speed="7.94" length="14.33" shape="3601.80,-908.91 3602.06,-912.85 3603.53,-915.72 3606.20,-917.51 3610.08,-918.22"/>
    </edge>
    <edge id=":J47_2" function="internal">
        <lane id=":J47_2_0" index="0" speed="6.43" length="9.03" shape="3610.21,-915.03 3607.77,-914.57 3606.08,-913.45 3605.16,-911.64 3604.99,-909.16"/>
    </edge>
    <edge id=":J47_3" function="internal">
        <lane id=":J47_3_0" index="0" speed="16.67" length="14.38" shape="3610.21,-915.03 3595.84,-914.55"/>
    </edge>
    <edge id=":J47_4" function="internal">
        <lane id=":J47_4_0" index="0" speed="16.67" length="14.33" shape="3595.76,-917.75 3610.08,-918.22"/>
    </edge>
    <edge id=":J47_5" function="internal">
        <lane id=":J47_5_0" index="0" speed="8.16" length="3.94" shape="3595.76,-917.75 3599.55,-917.29 3599.65,-917.23"/>
    </edge>
    <edge id=":J47_6" function="internal">
        <lane id=":J47_6_0" index="0" speed="8.16" length="10.29" shape="3599.65,-917.23 3602.35,-915.71 3604.16,-913.00 3604.99,-909.16"/>
    </edge>
    <edge id=":J48_0" function="internal">
        <lane id=":J48_0_0" index="0" speed="16.67" length="0.31" shape="3852.44,-924.84 3852.13,-924.83"/>
    </edge>
    <edge id=":J48_1" function="internal">
        <lane id=":J48_1_0" index="0" speed="16.67" length="0.28" shape="3852.00,-928.02 3852.28,-928.04"/>
    </edge>
    <edge id=":J49_0" function="internal">
        <lane id=":J49_0_0" index="0" speed="16.67" length="0.10" shape="4113.35,-937.49 4113.43,-937.49"/>
    </edge>
    <edge id=":J49_1" function="internal">
        <lane id=":J49_1_0" index="0" speed="16.67" length="0.10" shape="4113.27,-940.69 4113.35,-940.69"/>
    </edge>
    <edge id=":J5_0" function="internal">
        <lane id=":J5_0_0" index="0" speed="16.67" length="0.36" shape="1010.16,56.82 1009.80,56.81"/>
    </edge>
    <edge id=":J5_1" function="internal">
        <lane id=":J5_1_0" index="0" speed="16.67" length="0.12" shape="1009.96,53.62 1010.08,53.62"/>
    </edge>
    <edge id=":J51_0" function="internal">
        <lane id=":J51_0_0" index="0" speed="16.67" length="14.40" shape="-540.95,-865.66 -555.35,-865.66"/>
    </edge>
    <edge id=":J51_1" function="internal">
        <lane id=":J51_1_0" index="0" speed="7.96" length="4.08" shape="-540.95,-865.66 -544.83,-866.22 -544.97,-866.30"/>
    </edge>
    <edge id=":J51_6" function="internal">
        <lane id=":J51_6_0" index="0" speed="7.96" length="10.19" shape="-544.97,-866.30 -547.58,-867.89 -549.19,-870.67 -549.66,-874.56"/>
    </edge>
    <edge id=":J51_2" function="internal">
        <lane id=":J51_2_0" index="0" speed="6.46" length="9.03" shape="-546.46,-874.49 -546.16,-872.03 -545.15,-870.27 -543.41,-869.21 -540.95,-868.86"/>
    </edge>
    <edge id=":J51_3" function="internal">
        <lane id=":J51_3_0" index="0" speed="8.07" length="14.22" shape="-546.46,-874.49 -547.09,-870.63 -548.78,-867.87 -551.53,-866.21 -555.35,-865.66"/>
    </edge>
    <edge id=":J51_4" function="internal">
        <lane id=":J51_4_0" index="0" speed="6.59" length="9.14" shape="-555.35,-868.86 -552.91,-869.22 -551.15,-870.29 -550.06,-872.07 -549.66,-874.56"/>
    </edge>
    <edge id=":J51_5" function="internal">
        <lane id=":J51_5_0" index="0" speed="16.67" length="14.40" shape="-555.35,-868.86 -540.95,-868.86"/>
    </edge>
    <edge id=":J56_0" function="internal">
        <lane id=":J56_0_0" index="0" speed="16.67" length="0.52" shape="-625.09,-2382.08 -625.11,-2382.23 -625.12,-2382.34 -625.13,-2382.44 -625.13,-2382.60"/>
    </edge>
    <edge id=":J56_1" function="internal">
        <lane id=":J56_1_0" index="0" speed="16.67" length="0.17" shape="-621.93,-2382.67 -621.93,-2382.62 -621.93,-2382.58 -621.93,-2382.55 -621.92,-2382.50"/>
    </edge>
    <edge id=":J58_0" function="internal">
        <lane id=":J58_0_0" index="0" speed="9.15" length="8.21" shape="4570.76,-2265.25 4568.76,-2263.65 4567.28,-2262.06 4566.31,-2260.48 4565.87,-2258.92"/>
    </edge>
    <edge id=":J58_1" function="internal">
        <lane id=":J58_1_0" index="0" speed="8.39" length="12.79" shape="4570.76,-2265.25 4567.73,-2263.65 4564.77,-2263.20 4561.87,-2263.89 4559.03,-2265.73"/>
    </edge>
    <edge id=":J58_2" function="internal">
        <lane id=":J58_2_0" index="0" speed="6.00" length="11.42" shape="4570.76,-2265.25 4567.37,-2263.32 4565.02,-2263.09 4563.70,-2264.56 4563.42,-2267.74"/>
    </edge>
    <edge id=":J58_3" function="internal">
        <lane id=":J58_3_0" index="0" speed="16.67" length="8.66" shape="4566.62,-2267.55 4565.87,-2258.92"/>
    </edge>
    <edge id=":J58_4" function="internal">
        <lane id=":J58_4_0" index="0" speed="6.02" length="3.39" shape="4566.62,-2267.55 4565.97,-2264.46 4565.79,-2264.30"/>
    </edge>
    <edge id=":J58_7" function="internal">
        <lane id=":J58_7_0" index="0" speed="6.02" length="7.94" shape="4565.79,-2264.30 4564.48,-2263.13 4562.17,-2263.55 4559.03,-2265.73"/>
    </edge>
    <edge id=":J58_5" function="internal">
        <lane id=":J58_5_0" index="0" speed="7.94" length="7.67" shape="4562.69,-2259.30 4562.60,-2260.82 4561.95,-2262.39 4560.76,-2264.03 4559.03,-2265.73"/>
    </edge>
    <edge id=":J58_6" function="internal">
        <lane id=":J58_6_0" index="0" speed="16.67" length="8.47" shape="4562.69,-2259.30 4563.42,-2267.74"/>
    </edge>
    <edge id=":J59_0" function="internal">
        <lane id=":J59_0_0" index="0" speed="8.36" length="7.44" shape="4572.79,-2371.49 4572.97,-2370.10 4573.65,-2368.61 4574.83,-2367.00 4576.52,-2365.29"/>
    </edge>
    <edge id=":J59_1" function="internal">
        <lane id=":J59_1_0" index="0" speed="16.67" length="8.29" shape="4572.79,-2371.49 4572.31,-2363.21"/>
    </edge>
    <edge id=":J59_2" function="internal">
        <lane id=":J59_2_0" index="0" speed="8.97" length="7.84" shape="4565.15,-2365.43 4567.03,-2367.14 4568.41,-2368.75 4569.26,-2370.26 4569.59,-2371.66"/>
    </edge>
    <edge id=":J59_3" function="internal">
        <lane id=":J59_3_0" index="0" speed="7.99" length="12.60" shape="4565.15,-2365.43 4568.07,-2367.24 4570.95,-2367.82 4573.76,-2367.17 4576.52,-2365.29"/>
    </edge>
    <edge id=":J59_4" function="internal">
        <lane id=":J59_4_0" index="0" speed="5.96" length="11.62" shape="4565.15,-2365.43 4568.47,-2367.65 4570.77,-2368.02 4572.05,-2366.54 4572.31,-2363.21"/>
    </edge>
    <edge id=":J59_5" function="internal">
        <lane id=":J59_5_0" index="0" speed="16.67" length="8.27" shape="4569.11,-2363.40 4569.59,-2371.66"/>
    </edge>
    <edge id=":J59_6" function="internal">
        <lane id=":J59_6_0" index="0" speed="5.98" length="3.39" shape="4569.11,-2363.40 4569.76,-2366.60 4569.86,-2366.69"/>
    </edge>
    <edge id=":J59_7" function="internal">
        <lane id=":J59_7_0" index="0" speed="5.98" length="7.95" shape="4569.86,-2366.69 4571.21,-2367.97 4573.46,-2367.54 4576.52,-2365.29"/>
    </edge>
    <edge id=":J6_0" function="internal">
        <lane id=":J6_0_0" index="0" speed="16.67" length="0.26" shape="1465.48,45.09 1465.22,45.09"/>